Get the name of the MODPATH simulation file.
Read the first two records of the simulation file to get mpnamFile and mplistFile ...
Allocate rectangular unstructured grid component.
Allocate time discretization data component ...
Allocate disGrid.
Read grid file.
 
 ----------------------------------------------------------
 Cell connection data:
 ----------------------------------------------------------
 Format has two lines for each cell, listed by cell number.
 Line 1: Cell connections
 Line 1: Face assignment codes
 ----------------------------------------------------------
        1       2      26
        0   20101   30101
 
        2       1       3      27
        0   10101   20101   30101
 
        3       2       4      28
        0   10101   20101   30101
 
        4       3       5      29
        0   10101   20101   30101
 
        5       4       6      30
        0   10101   20101   30101
 
        6       5       7      31
        0   10101   20101   30101
 
        7       6       8      32
        0   10101   20101   30101
 
        8       7       9      33
        0   10101   20101   30101
 
        9       8      10      34
        0   10101   20101   30101
 
       10       9      11      35
        0   10101   20101   30101
 
       11      10      12      36
        0   10101   20101   30101
 
       12      11      13      37
        0   10101   20101   30101
 
       13      12      14      38
        0   10101   20101   30101
 
       14      13      15      39
        0   10101   20101   30101
 
       15      14      16      40
        0   10101   20101   30101
 
       16      15      17      41
        0   10101   20101   30101
 
       17      16      18      42
        0   10101   20101   30101
 
       18      17      19      43
        0   10101   20101   30101
 
       19      18      20      44
        0   10101   20101   30101
 
       20      19      21      45
        0   10101   20101   30101
 
       21      20      22      46
        0   10101   20101   30101
 
       22      21      23      47
        0   10101   20101   30101
 
       23      22      24      48
        0   10101   20101   30101
 
       24      23      25      49
        0   10101   20101   30101
 
       25      24      50
        0   10101   30101
 
       26       1      27      51
        0   40101   20101   30101
 
       27       2      26      28      52
        0   40101   10101   20101   30101
 
       28       3      27      29      53
        0   40101   10101   20101   30101
 
       29       4      28      30      54
        0   40101   10101   20101   30101
 
       30       5      29      31      55
        0   40101   10101   20101   30101
 
       31       6      30      32      56
        0   40101   10101   20101   30101
 
       32       7      31      33      57
        0   40101   10101   20101   30101
 
       33       8      32      34      58
        0   40101   10101   20101   30101
 
       34       9      33      35      59
        0   40101   10101   20101   30101
 
       35      10      34      36      60
        0   40101   10101   20101   30101
 
       36      11      35      37      61
        0   40101   10101   20101   30101
 
       37      12      36      38      62
        0   40101   10101   20101   30101
 
       38      13      37      39      63
        0   40101   10101   20101   30101
 
       39      14      38      40      64
        0   40101   10101   20101   30101
 
       40      15      39      41      65
        0   40101   10101   20101   30101
 
       41      16      40      42      66
        0   40101   10101   20101   30101
 
       42      17      41      43      67
        0   40101   10101   20101   30101
 
       43      18      42      44      68
        0   40101   10101   20101   30101
 
       44      19      43      45      69
        0   40101   10101   20101   30101
 
       45      20      44      46      70
        0   40101   10101   20101   30101
 
       46      21      45      47      71
        0   40101   10101   20101   30101
 
       47      22      46      48      72
        0   40101   10101   20101   30101
 
       48      23      47      49      73
        0   40101   10101   20101   30101
 
       49      24      48      50      74
        0   40101   10101   20101   30101
 
       50      25      49      75
        0   40101   10101   30101
 
       51      26      52      76
        0   40101   20101   30101
 
       52      27      51      53      77
        0   40101   10101   20101   30101
 
       53      28      52      54      78
        0   40101   10101   20101   30101
 
       54      29      53      55      79
        0   40101   10101   20101   30101
 
       55      30      54      56      80
        0   40101   10101   20101   30101
 
       56      31      55      57      81
        0   40101   10101   20101   30101
 
       57      32      56      58      82
        0   40101   10101   20101   30101
 
       58      33      57      59      83
        0   40101   10101   20101   30101
 
       59      34      58      60      84
        0   40101   10101   20101   30101
 
       60      35      59      61      85
        0   40101   10101   20101   30101
 
       61      36      60      62      86
        0   40101   10101   20101   30101
 
       62      37      61      63      87
        0   40101   10101   20101   30101
 
       63      38      62      64      88
        0   40101   10101   20101   30101
 
       64      39      63      65      89
        0   40101   10101   20101   30101
 
       65      40      64      66      90
        0   40101   10101   20101   30101
 
       66      41      65      67      91
        0   40101   10101   20101   30101
 
       67      42      66      68      92
        0   40101   10101   20101   30101
 
       68      43      67      69      93
        0   40101   10101   20101   30101
 
       69      44      68      70      94
        0   40101   10101   20101   30101
 
       70      45      69      71      95
        0   40101   10101   20101   30101
 
       71      46      70      72      96
        0   40101   10101   20101   30101
 
       72      47      71      73      97
        0   40101   10101   20101   30101
 
       73      48      72      74      98
        0   40101   10101   20101   30101
 
       74      49      73      75      99
        0   40101   10101   20101   30101
 
       75      50      74     100
        0   40101   10101   30101
 
       76      51      77     101
        0   40101   20101   30101
 
       77      52      76      78     102
        0   40101   10101   20101   30101
 
       78      53      77      79     103
        0   40101   10101   20101   30101
 
       79      54      78      80     104
        0   40101   10101   20101   30101
 
       80      55      79      81     105
        0   40101   10101   20101   30101
 
       81      56      80      82     106
        0   40101   10101   20101   30101
 
       82      57      81      83     107
        0   40101   10101   20101   30101
 
       83      58      82      84     108
        0   40101   10101   20101   30101
 
       84      59      83      85     109
        0   40101   10101   20101   30101
 
       85      60      84      86     110
        0   40101   10101   20101   30101
 
       86      61      85      87     111
        0   40101   10101   20101   30101
 
       87      62      86      88     112
        0   40101   10101   20101   30101
 
       88      63      87      89     113
        0   40101   10101   20101   30101
 
       89      64      88      90     114
        0   40101   10101   20101   30101
 
       90      65      89      91     115
        0   40101   10101   20101   30101
 
       91      66      90      92     116
        0   40101   10101   20101   30101
 
       92      67      91      93     117
        0   40101   10101   20101   30101
 
       93      68      92      94     118
        0   40101   10101   20101   30101
 
       94      69      93      95     119
        0   40101   10101   20101   30101
 
       95      70      94      96     120
        0   40101   10101   20101   30101
 
       96      71      95      97     121
        0   40101   10101   20101   30101
 
       97      72      96      98     122
        0   40101   10101   20101   30101
 
       98      73      97      99     123
        0   40101   10101   20101   30101
 
       99      74      98     100     124
        0   40101   10101   20101   30101
 
      100      75      99     125
        0   40101   10101   30101
 
      101      76     102     126
        0   40101   20101   30101
 
      102      77     101     103     127
        0   40101   10101   20101   30101
 
      103      78     102     104     128
        0   40101   10101   20101   30101
 
      104      79     103     105     129
        0   40101   10101   20101   30101
 
      105      80     104     106     130
        0   40101   10101   20101   30101
 
      106      81     105     107     131
        0   40101   10101   20101   30101
 
      107      82     106     108     132
        0   40101   10101   20101   30101
 
      108      83     107     109     133
        0   40101   10101   20101   30101
 
      109      84     108     110     134
        0   40101   10101   20101   30101
 
      110      85     109     111     135
        0   40101   10101   20101   30101
 
      111      86     110     112     136
        0   40101   10101   20101   30101
 
      112      87     111     113     137
        0   40101   10101   20101   30101
 
      113      88     112     114     138
        0   40101   10101   20101   30101
 
      114      89     113     115     139
        0   40101   10101   20101   30101
 
      115      90     114     116     140
        0   40101   10101   20101   30101
 
      116      91     115     117     141
        0   40101   10101   20101   30101
 
      117      92     116     118     142
        0   40101   10101   20101   30101
 
      118      93     117     119     143
        0   40101   10101   20101   30101
 
      119      94     118     120     144
        0   40101   10101   20101   30101
 
      120      95     119     121     145
        0   40101   10101   20101   30101
 
      121      96     120     122     146
        0   40101   10101   20101   30101
 
      122      97     121     123     147
        0   40101   10101   20101   30101
 
      123      98     122     124     148
        0   40101   10101   20101   30101
 
      124      99     123     125     149
        0   40101   10101   20101   30101
 
      125     100     124     150
        0   40101   10101   30101
 
      126     101     127     151
        0   40101   20101   30101
 
      127     102     126     128     152
        0   40101   10101   20101   30101
 
      128     103     127     129     153
        0   40101   10101   20101   30101
 
      129     104     128     130     154
        0   40101   10101   20101   30101
 
      130     105     129     131     155
        0   40101   10101   20101   30101
 
      131     106     130     132     156
        0   40101   10101   20101   30101
 
      132     107     131     133     157
        0   40101   10101   20101   30101
 
      133     108     132     134     158
        0   40101   10101   20101   30101
 
      134     109     133     135     159
        0   40101   10101   20101   30101
 
      135     110     134     136     160
        0   40101   10101   20101   30101
 
      136     111     135     137     161
        0   40101   10101   20101   30101
 
      137     112     136     138     162
        0   40101   10101   20101   30101
 
      138     113     137     139     163
        0   40101   10101   20101   30101
 
      139     114     138     140     164
        0   40101   10101   20101   30101
 
      140     115     139     141     165
        0   40101   10101   20101   30101
 
      141     116     140     142     166
        0   40101   10101   20101   30101
 
      142     117     141     143     167
        0   40101   10101   20101   30101
 
      143     118     142     144     168
        0   40101   10101   20101   30101
 
      144     119     143     145     169
        0   40101   10101   20101   30101
 
      145     120     144     146     170
        0   40101   10101   20101   30101
 
      146     121     145     147     171
        0   40101   10101   20101   30101
 
      147     122     146     148     172
        0   40101   10101   20101   30101
 
      148     123     147     149     173
        0   40101   10101   20101   30101
 
      149     124     148     150     174
        0   40101   10101   20101   30101
 
      150     125     149     175
        0   40101   10101   30101
 
      151     126     152     176
        0   40101   20101   30101
 
      152     127     151     153     177
        0   40101   10101   20101   30101
 
      153     128     152     154     178
        0   40101   10101   20101   30101
 
      154     129     153     155     179
        0   40101   10101   20101   30101
 
      155     130     154     156     180
        0   40101   10101   20101   30101
 
      156     131     155     157     181
        0   40101   10101   20101   30101
 
      157     132     156     158     182
        0   40101   10101   20101   30101
 
      158     133     157     159     183
        0   40101   10101   20101   30101
 
      159     134     158     160     184
        0   40101   10101   20101   30101
 
      160     135     159     161     185
        0   40101   10101   20101   30101
 
      161     136     160     162     186
        0   40101   10101   20101   30101
 
      162     137     161     163     187
        0   40101   10101   20101   30101
 
      163     138     162     164     188
        0   40101   10101   20101   30101
 
      164     139     163     165     189
        0   40101   10101   20101   30101
 
      165     140     164     166     190
        0   40101   10101   20101   30101
 
      166     141     165     167     191
        0   40101   10101   20101   30101
 
      167     142     166     168     192
        0   40101   10101   20101   30101
 
      168     143     167     169     193
        0   40101   10101   20101   30101
 
      169     144     168     170     194
        0   40101   10101   20101   30101
 
      170     145     169     171     195
        0   40101   10101   20101   30101
 
      171     146     170     172     196
        0   40101   10101   20101   30101
 
      172     147     171     173     197
        0   40101   10101   20101   30101
 
      173     148     172     174     198
        0   40101   10101   20101   30101
 
      174     149     173     175     199
        0   40101   10101   20101   30101
 
      175     150     174     200
        0   40101   10101   30101
 
      176     151     177     201
        0   40101   20101   30101
 
      177     152     176     178     202
        0   40101   10101   20101   30101
 
      178     153     177     179     203
        0   40101   10101   20101   30101
 
      179     154     178     180     204
        0   40101   10101   20101   30101
 
      180     155     179     181     205
        0   40101   10101   20101   30101
 
      181     156     180     182     206
        0   40101   10101   20101   30101
 
      182     157     181     183     207
        0   40101   10101   20101   30101
 
      183     158     182     184     208
        0   40101   10101   20101   30101
 
      184     159     183     185     209
        0   40101   10101   20101   30101
 
      185     160     184     186     210
        0   40101   10101   20101   30101
 
      186     161     185     187     211
        0   40101   10101   20101   30101
 
      187     162     186     188     212
        0   40101   10101   20101   30101
 
      188     163     187     189     213
        0   40101   10101   20101   30101
 
      189     164     188     190     214
        0   40101   10101   20101   30101
 
      190     165     189     191     215
        0   40101   10101   20101   30101
 
      191     166     190     192     216
        0   40101   10101   20101   30101
 
      192     167     191     193     217
        0   40101   10101   20101   30101
 
      193     168     192     194     218
        0   40101   10101   20101   30101
 
      194     169     193     195     219
        0   40101   10101   20101   30101
 
      195     170     194     196     220
        0   40101   10101   20101   30101
 
      196     171     195     197     221
        0   40101   10101   20101   30101
 
      197     172     196     198     222
        0   40101   10101   20101   30101
 
      198     173     197     199     223
        0   40101   10101   20101   30101
 
      199     174     198     200     224
        0   40101   10101   20101   30101
 
      200     175     199     225
        0   40101   10101   30101
 
      201     176     202     226
        0   40101   20101   30101
 
      202     177     201     203     227
        0   40101   10101   20101   30101
 
      203     178     202     204     228
        0   40101   10101   20101   30101
 
      204     179     203     205     229
        0   40101   10101   20101   30101
 
      205     180     204     206     230
        0   40101   10101   20101   30101
 
      206     181     205     207     231
        0   40101   10101   20101   30101
 
      207     182     206     208     232
        0   40101   10101   20101   30101
 
      208     183     207     209     233
        0   40101   10101   20101   30101
 
      209     184     208     210     234
        0   40101   10101   20101   30101
 
      210     185     209     211     235
        0   40101   10101   20101   30101
 
      211     186     210     212     236
        0   40101   10101   20101   30101
 
      212     187     211     213     237
        0   40101   10101   20101   30101
 
      213     188     212     214     238
        0   40101   10101   20101   30101
 
      214     189     213     215     239
        0   40101   10101   20101   30101
 
      215     190     214     216     240
        0   40101   10101   20101   30101
 
      216     191     215     217     241
        0   40101   10101   20101   30101
 
      217     192     216     218     242
        0   40101   10101   20101   30101
 
      218     193     217     219     243
        0   40101   10101   20101   30101
 
      219     194     218     220     244
        0   40101   10101   20101   30101
 
      220     195     219     221     245
        0   40101   10101   20101   30101
 
      221     196     220     222     246
        0   40101   10101   20101   30101
 
      222     197     221     223     247
        0   40101   10101   20101   30101
 
      223     198     222     224     248
        0   40101   10101   20101   30101
 
      224     199     223     225     249
        0   40101   10101   20101   30101
 
      225     200     224     250
        0   40101   10101   30101
 
      226     201     227     251
        0   40101   20101   30101
 
      227     202     226     228     252
        0   40101   10101   20101   30101
 
      228     203     227     229     253
        0   40101   10101   20101   30101
 
      229     204     228     230     254
        0   40101   10101   20101   30101
 
      230     205     229     231     255
        0   40101   10101   20101   30101
 
      231     206     230     232     256
        0   40101   10101   20101   30101
 
      232     207     231     233     257
        0   40101   10101   20101   30101
 
      233     208     232     234     258
        0   40101   10101   20101   30101
 
      234     209     233     235     259
        0   40101   10101   20101   30101
 
      235     210     234     236     260
        0   40101   10101   20101   30101
 
      236     211     235     237     261
        0   40101   10101   20101   30101
 
      237     212     236     238     262
        0   40101   10101   20101   30101
 
      238     213     237     239     263
        0   40101   10101   20101   30101
 
      239     214     238     240     264
        0   40101   10101   20101   30101
 
      240     215     239     241     265
        0   40101   10101   20101   30101
 
      241     216     240     242     266
        0   40101   10101   20101   30101
 
      242     217     241     243     267
        0   40101   10101   20101   30101
 
      243     218     242     244     268
        0   40101   10101   20101   30101
 
      244     219     243     245     269
        0   40101   10101   20101   30101
 
      245     220     244     246     270
        0   40101   10101   20101   30101
 
      246     221     245     247     271
        0   40101   10101   20101   30101
 
      247     222     246     248     272
        0   40101   10101   20101   30101
 
      248     223     247     249     273
        0   40101   10101   20101   30101
 
      249     224     248     250     274
        0   40101   10101   20101   30101
 
      250     225     249     275
        0   40101   10101   30101
 
      251     226     252     276
        0   40101   20101   30101
 
      252     227     251     253     277
        0   40101   10101   20101   30101
 
      253     228     252     254     278
        0   40101   10101   20101   30101
 
      254     229     253     255     279
        0   40101   10101   20101   30101
 
      255     230     254     256     280
        0   40101   10101   20101   30101
 
      256     231     255     257     281
        0   40101   10101   20101   30101
 
      257     232     256     258     282
        0   40101   10101   20101   30101
 
      258     233     257     259     283
        0   40101   10101   20101   30101
 
      259     234     258     260     284
        0   40101   10101   20101   30101
 
      260     235     259     261     285
        0   40101   10101   20101   30101
 
      261     236     260     262     286
        0   40101   10101   20101   30101
 
      262     237     261     263     287
        0   40101   10101   20101   30101
 
      263     238     262     264     288
        0   40101   10101   20101   30101
 
      264     239     263     265     289
        0   40101   10101   20101   30101
 
      265     240     264     266     290
        0   40101   10101   20101   30101
 
      266     241     265     267     291
        0   40101   10101   20101   30101
 
      267     242     266     268     292
        0   40101   10101   20101   30101
 
      268     243     267     269     293
        0   40101   10101   20101   30101
 
      269     244     268     270     294
        0   40101   10101   20101   30101
 
      270     245     269     271     295
        0   40101   10101   20101   30101
 
      271     246     270     272     296
        0   40101   10101   20101   30101
 
      272     247     271     273     297
        0   40101   10101   20101   30101
 
      273     248     272     274     298
        0   40101   10101   20101   30101
 
      274     249     273     275     299
        0   40101   10101   20101   30101
 
      275     250     274     300
        0   40101   10101   30101
 
      276     251     277     301
        0   40101   20101   30101
 
      277     252     276     278     302
        0   40101   10101   20101   30101
 
      278     253     277     279     303
        0   40101   10101   20101   30101
 
      279     254     278     280     304
        0   40101   10101   20101   30101
 
      280     255     279     281     305
        0   40101   10101   20101   30101
 
      281     256     280     282     306
        0   40101   10101   20101   30101
 
      282     257     281     283     307
        0   40101   10101   20101   30101
 
      283     258     282     284     308
        0   40101   10101   20101   30101
 
      284     259     283     285     309
        0   40101   10101   20101   30101
 
      285     260     284     286     310
        0   40101   10101   20101   30101
 
      286     261     285     287     311
        0   40101   10101   20101   30101
 
      287     262     286     288     312
        0   40101   10101   20101   30101
 
      288     263     287     289     313
        0   40101   10101   20101   30101
 
      289     264     288     290     314
        0   40101   10101   20101   30101
 
      290     265     289     291     315
        0   40101   10101   20101   30101
 
      291     266     290     292     316
        0   40101   10101   20101   30101
 
      292     267     291     293     317
        0   40101   10101   20101   30101
 
      293     268     292     294     318
        0   40101   10101   20101   30101
 
      294     269     293     295     319
        0   40101   10101   20101   30101
 
      295     270     294     296     320
        0   40101   10101   20101   30101
 
      296     271     295     297     321
        0   40101   10101   20101   30101
 
      297     272     296     298     322
        0   40101   10101   20101   30101
 
      298     273     297     299     323
        0   40101   10101   20101   30101
 
      299     274     298     300     324
        0   40101   10101   20101   30101
 
      300     275     299     325
        0   40101   10101   30101
 
      301     276     302     326
        0   40101   20101   30101
 
      302     277     301     303     327
        0   40101   10101   20101   30101
 
      303     278     302     304     328
        0   40101   10101   20101   30101
 
      304     279     303     305     329
        0   40101   10101   20101   30101
 
      305     280     304     306     330
        0   40101   10101   20101   30101
 
      306     281     305     307     331
        0   40101   10101   20101   30101
 
      307     282     306     308     332
        0   40101   10101   20101   30101
 
      308     283     307     309     333
        0   40101   10101   20101   30101
 
      309     284     308     310     334
        0   40101   10101   20101   30101
 
      310     285     309     311     335
        0   40101   10101   20101   30101
 
      311     286     310     312     336
        0   40101   10101   20101   30101
 
      312     287     311     313     337
        0   40101   10101   20101   30101
 
      313     288     312     314     338
        0   40101   10101   20101   30101
 
      314     289     313     315     339
        0   40101   10101   20101   30101
 
      315     290     314     316     340
        0   40101   10101   20101   30101
 
      316     291     315     317     341
        0   40101   10101   20101   30101
 
      317     292     316     318     342
        0   40101   10101   20101   30101
 
      318     293     317     319     343
        0   40101   10101   20101   30101
 
      319     294     318     320     344
        0   40101   10101   20101   30101
 
      320     295     319     321     345
        0   40101   10101   20101   30101
 
      321     296     320     322     346
        0   40101   10101   20101   30101
 
      322     297     321     323     347
        0   40101   10101   20101   30101
 
      323     298     322     324     348
        0   40101   10101   20101   30101
 
      324     299     323     325     349
        0   40101   10101   20101   30101
 
      325     300     324     350
        0   40101   10101   30101
 
      326     301     327     351
        0   40101   20101   30101
 
      327     302     326     328     352
        0   40101   10101   20101   30101
 
      328     303     327     329     353
        0   40101   10101   20101   30101
 
      329     304     328     330     354
        0   40101   10101   20101   30101
 
      330     305     329     331     355
        0   40101   10101   20101   30101
 
      331     306     330     332     356
        0   40101   10101   20101   30101
 
      332     307     331     333     357
        0   40101   10101   20101   30101
 
      333     308     332     334     358
        0   40101   10101   20101   30101
 
      334     309     333     335     359
        0   40101   10101   20101   30101
 
      335     310     334     336     360
        0   40101   10101   20101   30101
 
      336     311     335     337     361
        0   40101   10101   20101   30101
 
      337     312     336     338     362
        0   40101   10101   20101   30101
 
      338     313     337     339     363
        0   40101   10101   20101   30101
 
      339     314     338     340     364
        0   40101   10101   20101   30101
 
      340     315     339     341     365
        0   40101   10101   20101   30101
 
      341     316     340     342     366
        0   40101   10101   20101   30101
 
      342     317     341     343     367
        0   40101   10101   20101   30101
 
      343     318     342     344     368
        0   40101   10101   20101   30101
 
      344     319     343     345     369
        0   40101   10101   20101   30101
 
      345     320     344     346     370
        0   40101   10101   20101   30101
 
      346     321     345     347     371
        0   40101   10101   20101   30101
 
      347     322     346     348     372
        0   40101   10101   20101   30101
 
      348     323     347     349     373
        0   40101   10101   20101   30101
 
      349     324     348     350     374
        0   40101   10101   20101   30101
 
      350     325     349     375
        0   40101   10101   30101
 
      351     326     352     376
        0   40101   20101   30101
 
      352     327     351     353     377
        0   40101   10101   20101   30101
 
      353     328     352     354     378
        0   40101   10101   20101   30101
 
      354     329     353     355     379
        0   40101   10101   20101   30101
 
      355     330     354     356     380
        0   40101   10101   20101   30101
 
      356     331     355     357     381
        0   40101   10101   20101   30101
 
      357     332     356     358     382
        0   40101   10101   20101   30101
 
      358     333     357     359     383
        0   40101   10101   20101   30101
 
      359     334     358     360     384
        0   40101   10101   20101   30101
 
      360     335     359     361     385
        0   40101   10101   20101   30101
 
      361     336     360     362     386
        0   40101   10101   20101   30101
 
      362     337     361     363     387
        0   40101   10101   20101   30101
 
      363     338     362     364     388
        0   40101   10101   20101   30101
 
      364     339     363     365     389
        0   40101   10101   20101   30101
 
      365     340     364     366     390
        0   40101   10101   20101   30101
 
      366     341     365     367     391
        0   40101   10101   20101   30101
 
      367     342     366     368     392
        0   40101   10101   20101   30101
 
      368     343     367     369     393
        0   40101   10101   20101   30101
 
      369     344     368     370     394
        0   40101   10101   20101   30101
 
      370     345     369     371     395
        0   40101   10101   20101   30101
 
      371     346     370     372     396
        0   40101   10101   20101   30101
 
      372     347     371     373     397
        0   40101   10101   20101   30101
 
      373     348     372     374     398
        0   40101   10101   20101   30101
 
      374     349     373     375     399
        0   40101   10101   20101   30101
 
      375     350     374     400
        0   40101   10101   30101
 
      376     351     377     401
        0   40101   20101   30101
 
      377     352     376     378     402
        0   40101   10101   20101   30101
 
      378     353     377     379     403
        0   40101   10101   20101   30101
 
      379     354     378     380     404
        0   40101   10101   20101   30101
 
      380     355     379     381     405
        0   40101   10101   20101   30101
 
      381     356     380     382     406
        0   40101   10101   20101   30101
 
      382     357     381     383     407
        0   40101   10101   20101   30101
 
      383     358     382     384     408
        0   40101   10101   20101   30101
 
      384     359     383     385     409
        0   40101   10101   20101   30101
 
      385     360     384     386     410
        0   40101   10101   20101   30101
 
      386     361     385     387     411
        0   40101   10101   20101   30101
 
      387     362     386     388     412
        0   40101   10101   20101   30101
 
      388     363     387     389     413
        0   40101   10101   20101   30101
 
      389     364     388     390     414
        0   40101   10101   20101   30101
 
      390     365     389     391     415
        0   40101   10101   20101   30101
 
      391     366     390     392     416
        0   40101   10101   20101   30101
 
      392     367     391     393     417
        0   40101   10101   20101   30101
 
      393     368     392     394     418
        0   40101   10101   20101   30101
 
      394     369     393     395     419
        0   40101   10101   20101   30101
 
      395     370     394     396     420
        0   40101   10101   20101   30101
 
      396     371     395     397     421
        0   40101   10101   20101   30101
 
      397     372     396     398     422
        0   40101   10101   20101   30101
 
      398     373     397     399     423
        0   40101   10101   20101   30101
 
      399     374     398     400     424
        0   40101   10101   20101   30101
 
      400     375     399     425
        0   40101   10101   30101
 
      401     376     402     426
        0   40101   20101   30101
 
      402     377     401     403     427
        0   40101   10101   20101   30101
 
      403     378     402     404     428
        0   40101   10101   20101   30101
 
      404     379     403     405     429
        0   40101   10101   20101   30101
 
      405     380     404     406     430
        0   40101   10101   20101   30101
 
      406     381     405     407     431
        0   40101   10101   20101   30101
 
      407     382     406     408     432
        0   40101   10101   20101   30101
 
      408     383     407     409     433
        0   40101   10101   20101   30101
 
      409     384     408     410     434
        0   40101   10101   20101   30101
 
      410     385     409     411     435
        0   40101   10101   20101   30101
 
      411     386     410     412     436
        0   40101   10101   20101   30101
 
      412     387     411     413     437
        0   40101   10101   20101   30101
 
      413     388     412     414     438
        0   40101   10101   20101   30101
 
      414     389     413     415     439
        0   40101   10101   20101   30101
 
      415     390     414     416     440
        0   40101   10101   20101   30101
 
      416     391     415     417     441
        0   40101   10101   20101   30101
 
      417     392     416     418     442
        0   40101   10101   20101   30101
 
      418     393     417     419     443
        0   40101   10101   20101   30101
 
      419     394     418     420     444
        0   40101   10101   20101   30101
 
      420     395     419     421     445
        0   40101   10101   20101   30101
 
      421     396     420     422     446
        0   40101   10101   20101   30101
 
      422     397     421     423     447
        0   40101   10101   20101   30101
 
      423     398     422     424     448
        0   40101   10101   20101   30101
 
      424     399     423     425     449
        0   40101   10101   20101   30101
 
      425     400     424     450
        0   40101   10101   30101
 
      426     401     427     451
        0   40101   20101   30101
 
      427     402     426     428     452
        0   40101   10101   20101   30101
 
      428     403     427     429     453
        0   40101   10101   20101   30101
 
      429     404     428     430     454
        0   40101   10101   20101   30101
 
      430     405     429     431     455
        0   40101   10101   20101   30101
 
      431     406     430     432     456
        0   40101   10101   20101   30101
 
      432     407     431     433     457
        0   40101   10101   20101   30101
 
      433     408     432     434     458
        0   40101   10101   20101   30101
 
      434     409     433     435     459
        0   40101   10101   20101   30101
 
      435     410     434     436     460
        0   40101   10101   20101   30101
 
      436     411     435     437     461
        0   40101   10101   20101   30101
 
      437     412     436     438     462
        0   40101   10101   20101   30101
 
      438     413     437     439     463
        0   40101   10101   20101   30101
 
      439     414     438     440     464
        0   40101   10101   20101   30101
 
      440     415     439     441     465
        0   40101   10101   20101   30101
 
      441     416     440     442     466
        0   40101   10101   20101   30101
 
      442     417     441     443     467
        0   40101   10101   20101   30101
 
      443     418     442     444     468
        0   40101   10101   20101   30101
 
      444     419     443     445     469
        0   40101   10101   20101   30101
 
      445     420     444     446     470
        0   40101   10101   20101   30101
 
      446     421     445     447     471
        0   40101   10101   20101   30101
 
      447     422     446     448     472
        0   40101   10101   20101   30101
 
      448     423     447     449     473
        0   40101   10101   20101   30101
 
      449     424     448     450     474
        0   40101   10101   20101   30101
 
      450     425     449     475
        0   40101   10101   30101
 
      451     426     452     476
        0   40101   20101   30101
 
      452     427     451     453     477
        0   40101   10101   20101   30101
 
      453     428     452     454     478
        0   40101   10101   20101   30101
 
      454     429     453     455     479
        0   40101   10101   20101   30101
 
      455     430     454     456     480
        0   40101   10101   20101   30101
 
      456     431     455     457     481
        0   40101   10101   20101   30101
 
      457     432     456     458     482
        0   40101   10101   20101   30101
 
      458     433     457     459     483
        0   40101   10101   20101   30101
 
      459     434     458     460     484
        0   40101   10101   20101   30101
 
      460     435     459     461     485
        0   40101   10101   20101   30101
 
      461     436     460     462     486
        0   40101   10101   20101   30101
 
      462     437     461     463     487
        0   40101   10101   20101   30101
 
      463     438     462     464     488
        0   40101   10101   20101   30101
 
      464     439     463     465     489
        0   40101   10101   20101   30101
 
      465     440     464     466     490
        0   40101   10101   20101   30101
 
      466     441     465     467     491
        0   40101   10101   20101   30101
 
      467     442     466     468     492
        0   40101   10101   20101   30101
 
      468     443     467     469     493
        0   40101   10101   20101   30101
 
      469     444     468     470     494
        0   40101   10101   20101   30101
 
      470     445     469     471     495
        0   40101   10101   20101   30101
 
      471     446     470     472     496
        0   40101   10101   20101   30101
 
      472     447     471     473     497
        0   40101   10101   20101   30101
 
      473     448     472     474     498
        0   40101   10101   20101   30101
 
      474     449     473     475     499
        0   40101   10101   20101   30101
 
      475     450     474     500
        0   40101   10101   30101
 
      476     451     477     501
        0   40101   20101   30101
 
      477     452     476     478     502
        0   40101   10101   20101   30101
 
      478     453     477     479     503
        0   40101   10101   20101   30101
 
      479     454     478     480     504
        0   40101   10101   20101   30101
 
      480     455     479     481     505
        0   40101   10101   20101   30101
 
      481     456     480     482     506
        0   40101   10101   20101   30101
 
      482     457     481     483     507
        0   40101   10101   20101   30101
 
      483     458     482     484     508
        0   40101   10101   20101   30101
 
      484     459     483     485     509
        0   40101   10101   20101   30101
 
      485     460     484     486     510
        0   40101   10101   20101   30101
 
      486     461     485     487     511
        0   40101   10101   20101   30101
 
      487     462     486     488     512
        0   40101   10101   20101   30101
 
      488     463     487     489     513
        0   40101   10101   20101   30101
 
      489     464     488     490     514
        0   40101   10101   20101   30101
 
      490     465     489     491     515
        0   40101   10101   20101   30101
 
      491     466     490     492     516
        0   40101   10101   20101   30101
 
      492     467     491     493     517
        0   40101   10101   20101   30101
 
      493     468     492     494     518
        0   40101   10101   20101   30101
 
      494     469     493     495     519
        0   40101   10101   20101   30101
 
      495     470     494     496     520
        0   40101   10101   20101   30101
 
      496     471     495     497     521
        0   40101   10101   20101   30101
 
      497     472     496     498     522
        0   40101   10101   20101   30101
 
      498     473     497     499     523
        0   40101   10101   20101   30101
 
      499     474     498     500     524
        0   40101   10101   20101   30101
 
      500     475     499     525
        0   40101   10101   30101
 
      501     476     502     526
        0   40101   20101   30101
 
      502     477     501     503     527
        0   40101   10101   20101   30101
 
      503     478     502     504     528
        0   40101   10101   20101   30101
 
      504     479     503     505     529
        0   40101   10101   20101   30101
 
      505     480     504     506     530
        0   40101   10101   20101   30101
 
      506     481     505     507     531
        0   40101   10101   20101   30101
 
      507     482     506     508     532
        0   40101   10101   20101   30101
 
      508     483     507     509     533
        0   40101   10101   20101   30101
 
      509     484     508     510     534
        0   40101   10101   20101   30101
 
      510     485     509     511     535
        0   40101   10101   20101   30101
 
      511     486     510     512     536
        0   40101   10101   20101   30101
 
      512     487     511     513     537
        0   40101   10101   20101   30101
 
      513     488     512     514     538
        0   40101   10101   20101   30101
 
      514     489     513     515     539
        0   40101   10101   20101   30101
 
      515     490     514     516     540
        0   40101   10101   20101   30101
 
      516     491     515     517     541
        0   40101   10101   20101   30101
 
      517     492     516     518     542
        0   40101   10101   20101   30101
 
      518     493     517     519     543
        0   40101   10101   20101   30101
 
      519     494     518     520     544
        0   40101   10101   20101   30101
 
      520     495     519     521     545
        0   40101   10101   20101   30101
 
      521     496     520     522     546
        0   40101   10101   20101   30101
 
      522     497     521     523     547
        0   40101   10101   20101   30101
 
      523     498     522     524     548
        0   40101   10101   20101   30101
 
      524     499     523     525     549
        0   40101   10101   20101   30101
 
      525     500     524     550
        0   40101   10101   30101
 
      526     501     527     551
        0   40101   20101   30101
 
      527     502     526     528     552
        0   40101   10101   20101   30101
 
      528     503     527     529     553
        0   40101   10101   20101   30101
 
      529     504     528     530     554
        0   40101   10101   20101   30101
 
      530     505     529     531     555
        0   40101   10101   20101   30101
 
      531     506     530     532     556
        0   40101   10101   20101   30101
 
      532     507     531     533     557
        0   40101   10101   20101   30101
 
      533     508     532     534     558
        0   40101   10101   20101   30101
 
      534     509     533     535     559
        0   40101   10101   20101   30101
 
      535     510     534     536     560
        0   40101   10101   20101   30101
 
      536     511     535     537     561
        0   40101   10101   20101   30101
 
      537     512     536     538     562
        0   40101   10101   20101   30101
 
      538     513     537     539     563
        0   40101   10101   20101   30101
 
      539     514     538     540     564
        0   40101   10101   20101   30101
 
      540     515     539     541     565
        0   40101   10101   20101   30101
 
      541     516     540     542     566
        0   40101   10101   20101   30101
 
      542     517     541     543     567
        0   40101   10101   20101   30101
 
      543     518     542     544     568
        0   40101   10101   20101   30101
 
      544     519     543     545     569
        0   40101   10101   20101   30101
 
      545     520     544     546     570
        0   40101   10101   20101   30101
 
      546     521     545     547     571
        0   40101   10101   20101   30101
 
      547     522     546     548     572
        0   40101   10101   20101   30101
 
      548     523     547     549     573
        0   40101   10101   20101   30101
 
      549     524     548     550     574
        0   40101   10101   20101   30101
 
      550     525     549     575
        0   40101   10101   30101
 
      551     526     552     576
        0   40101   20101   30101
 
      552     527     551     553     577
        0   40101   10101   20101   30101
 
      553     528     552     554     578
        0   40101   10101   20101   30101
 
      554     529     553     555     579
        0   40101   10101   20101   30101
 
      555     530     554     556     580
        0   40101   10101   20101   30101
 
      556     531     555     557     581
        0   40101   10101   20101   30101
 
      557     532     556     558     582
        0   40101   10101   20101   30101
 
      558     533     557     559     583
        0   40101   10101   20101   30101
 
      559     534     558     560     584
        0   40101   10101   20101   30101
 
      560     535     559     561     585
        0   40101   10101   20101   30101
 
      561     536     560     562     586
        0   40101   10101   20101   30101
 
      562     537     561     563     587
        0   40101   10101   20101   30101
 
      563     538     562     564     588
        0   40101   10101   20101   30101
 
      564     539     563     565     589
        0   40101   10101   20101   30101
 
      565     540     564     566     590
        0   40101   10101   20101   30101
 
      566     541     565     567     591
        0   40101   10101   20101   30101
 
      567     542     566     568     592
        0   40101   10101   20101   30101
 
      568     543     567     569     593
        0   40101   10101   20101   30101
 
      569     544     568     570     594
        0   40101   10101   20101   30101
 
      570     545     569     571     595
        0   40101   10101   20101   30101
 
      571     546     570     572     596
        0   40101   10101   20101   30101
 
      572     547     571     573     597
        0   40101   10101   20101   30101
 
      573     548     572     574     598
        0   40101   10101   20101   30101
 
      574     549     573     575     599
        0   40101   10101   20101   30101
 
      575     550     574     600
        0   40101   10101   30101
 
      576     551     577     601
        0   40101   20101   30101
 
      577     552     576     578     602
        0   40101   10101   20101   30101
 
      578     553     577     579     603
        0   40101   10101   20101   30101
 
      579     554     578     580     604
        0   40101   10101   20101   30101
 
      580     555     579     581     605
        0   40101   10101   20101   30101
 
      581     556     580     582     606
        0   40101   10101   20101   30101
 
      582     557     581     583     607
        0   40101   10101   20101   30101
 
      583     558     582     584     608
        0   40101   10101   20101   30101
 
      584     559     583     585     609
        0   40101   10101   20101   30101
 
      585     560     584     586     610
        0   40101   10101   20101   30101
 
      586     561     585     587     611
        0   40101   10101   20101   30101
 
      587     562     586     588     612
        0   40101   10101   20101   30101
 
      588     563     587     589     613
        0   40101   10101   20101   30101
 
      589     564     588     590     614
        0   40101   10101   20101   30101
 
      590     565     589     591     615
        0   40101   10101   20101   30101
 
      591     566     590     592     616
        0   40101   10101   20101   30101
 
      592     567     591     593     617
        0   40101   10101   20101   30101
 
      593     568     592     594     618
        0   40101   10101   20101   30101
 
      594     569     593     595     619
        0   40101   10101   20101   30101
 
      595     570     594     596     620
        0   40101   10101   20101   30101
 
      596     571     595     597     621
        0   40101   10101   20101   30101
 
      597     572     596     598     622
        0   40101   10101   20101   30101
 
      598     573     597     599     623
        0   40101   10101   20101   30101
 
      599     574     598     600     624
        0   40101   10101   20101   30101
 
      600     575     599     625
        0   40101   10101   30101
 
      601     576     602
        0   40101   20101
 
      602     577     601     603
        0   40101   10101   20101
 
      603     578     602     604
        0   40101   10101   20101
 
      604     579     603     605
        0   40101   10101   20101
 
      605     580     604     606
        0   40101   10101   20101
 
      606     581     605     607
        0   40101   10101   20101
 
      607     582     606     608
        0   40101   10101   20101
 
      608     583     607     609
        0   40101   10101   20101
 
      609     584     608     610
        0   40101   10101   20101
 
      610     585     609     611
        0   40101   10101   20101
 
      611     586     610     612
        0   40101   10101   20101
 
      612     587     611     613
        0   40101   10101   20101
 
      613     588     612     614
        0   40101   10101   20101
 
      614     589     613     615
        0   40101   10101   20101
 
      615     590     614     616
        0   40101   10101   20101
 
      616     591     615     617
        0   40101   10101   20101
 
      617     592     616     618
        0   40101   10101   20101
 
      618     593     617     619
        0   40101   10101   20101
 
      619     594     618     620
        0   40101   10101   20101
 
      620     595     619     621
        0   40101   10101   20101
 
      621     596     620     622
        0   40101   10101   20101
 
      622     597     621     623
        0   40101   10101   20101
 
      623     598     622     624
        0   40101   10101   20101
 
      624     599     623     625
        0   40101   10101   20101
 
      625     600     624
        0   40101   10101
 
Allocate budget reader component.
Open budget file in budget reader.
Allocate head reader component.
Open head file in head reader component.
Allocate MODPATH basic data component.
Read MODPATH basic data component.
Read the remainder of the MODPATH simulation data component.
Allocate particle tracking engine component.
Compute range of time steps. Prepare for time step loop                                                                             
Begin TIME_STEP_LOOP
Compute TSMAX                                                                                                                       
Begin TRACKING_INTERVAL_LOOP
Exit TRACKING_INTERVAL_LOOP
Exit TIME_STEP_LOOP
Write endpoint file.
Consolidating pathline segments.
Begin memory deallocation.
Memory deallocation complete.
